Circuit: * C:\Users\49152\Desktop\HSLH\WS_2022\LTspice\Draft1.asc

.OP point found by inspection.

Date: Sat Oct 09 23:15:12 2021
Total elapsed time: 0.301 seconds.

tnom = 27
temp = 27
method = modified trap
totiter = 18070
traniter = 18070
tranpoints = 8816
accept = 5300
rejected = 3516
matrix size = 3
fillins = 0
solver = Normal
Matrix Compiler1: 50 bytes object code size  0.1/0.0/[0.0]
Matrix Compiler2: 175 bytes object code size  0.1/0.1/[0.0]

