Circuit: * C:\Users\49152\Desktop\HSLH\WS_2022\LTspice\exercise2_1.asc

.OP point found by inspection.

Date: Fri Oct 29 10:06:43 2021
Total elapsed time: 0.136 seconds.

tnom = 27
temp = 27
method = modified trap
totiter = 13110
traniter = 13110
tranpoints = 3781
accept = 2589
rejected = 1192
matrix size = 6
fillins = 0
solver = Normal
Matrix Compiler1: 200 bytes object code size  0.1/0.1/[0.0]
Matrix Compiler2: off  [0.1]/0.1/0.1

