Circuit: * C:\Users\49152\Desktop\HSLH\WS_2022\LTspice\exercise2_transient_1.asc

.OP point found by inspection.

Date: Fri Oct 29 10:17:30 2021
Total elapsed time: 0.086 seconds.

tnom = 27
temp = 27
method = trap
totiter = 6000
traniter = 0
tranpoints = 0
accept = 0
rejected = 0
matrix size = 6
fillins = 0
solver = Normal
Matrix Compiler1:      12 opcodes  0.1/[0.0]/0.1
Matrix Compiler2: 394 bytes object code size  0.1/0.1/[0.1]

