Circuit: * C:\Users\49152\Desktop\HSLH\WS_2022\LTspice\exercise2_transient_2.asc

Direct Newton iteration for .op point succeeded.

Date: Fri Oct 29 11:08:45 2021
Total elapsed time: 0.912 seconds.

tnom = 27
temp = 27
method = modified trap
totiter = 450120
traniter = 450106
tranpoints = 170025
accept = 135022
rejected = 35003
matrix size = 6
fillins = 0
solver = Normal
Matrix Compiler1: 200 bytes object code size  0.1/0.1/[0.0]
Matrix Compiler2: 362 bytes object code size  0.1/0.1/[0.1]

