Circuit: * C:\Users\49152\Desktop\HSLH\WS_2022\Power_supply_example_OK.asc

.OP point found by inspection.

Date: Wed Sep 29 01:03:31 2021
Total elapsed time: 0.252 seconds.

tnom = 27
temp = 27
method = modified trap
totiter = 25325
traniter = 25325
tranpoints = 11130
accept = 10596
rejected = 534
matrix size = 15
fillins = 6
solver = Normal
Matrix Compiler1: 952 bytes object code size  0.2/0.1/[0.1]
Matrix Compiler2: 1.14 KB object code size  0.2/0.2/[0.1]

